---- qbsp / ericw-tools v0.18.1 ----
Input file: LastStand.map
Output file: LastStand.bsp

---- LoadMapFile ----
*** WARNING 06: No info_player_deathmatch entities in level
         4853 faces
          805 brushes
          170 entities
           67 unique texnames
          839 texinfo

Opened WAD: C:/Users/Steve/Documents/GitHub/quakesingleplayermap/wads/hipnotic.wad
Opened WAD: C:/Users/Steve/Documents/GitHub/quakesingleplayermap/wads/id1.wad
Opened WAD: C:/Users/Steve/Documents/GitHub/quakesingleplayermap/wads/rogue.wad
Processing hull 0...
---- Brush_LoadEntity ----
          780 brushes
          507 planes
---- CSGFaces ----
         4703 brushfaces
         3545 csgfaces
         2931 mergedfaces
---- SolidBSP ----
         4128 split nodes
         1656 solid leafs
         2249 empty leafs
          224 water leafs
            0 detail leafs
            0 detail illusionary leafs
            0 detail fence leafs
            0 illusionary visblocker leafs
         8414 leaffaces
         7983 nodefaces
---- Portalize ----
         2473 vis leafs
         2473 vis clusters
         7236 vis portals
---- FillOutside ----
*** WARNING 10: Reached occupant at (440 136 168), no filling performed.
Leak file written to LastStand.pts
---- MakeFaceEdges ----
---- GrowRegions ----
Processing hull 1...
*** WARNING 10: Reached occupant at (1112 360 440), no filling performed.
Processing hull 2...
*** WARNING 10: Reached occupant at (1112 360 440), no filling performed.
*** WARNING 16: Texture 128_blue_1 not found
*** WARNING 16: Texture 128_blue_3 not found
---- WriteBSPFile ----
Wrote LastStand.bsp
          944 planes            18880
         9454 vertexes         113448
         4272 nodes            102528
          725 texinfo           29000
         8140 faces            162800
         5922 clipnodes         47376
         2618 leafs             73304
         8571 marksurfaces      17142
        32418 surfedges        129672
        20856 edges             83424
           72 textures         812292
              lightdata             0
              visdata               0
              entdata           11552

0.581 seconds elapsed
Peak memory usage: 39017130 (37.2M)
