---- qbsp / ericw-tools v0.18.1 ----
Input file: LastStand.map
Output file: LastStand.bsp

---- LoadMapFile ----
*** WARNING 06: No info_player_deathmatch entities in level
         1814 faces
          304 brushes
            7 entities
           33 unique texnames
          339 texinfo

Opened WAD: C:/Users/Steve/Documents/GitHub/quakesingleplayermap/wads/start/START.WAD
Opened WAD: C:/Users/Steve/Documents/GitHub/quakesingleplayermap/wads/prototype_1_2.wad
Opened WAD: C:/Users/Steve/Documents/GitHub/quakesingleplayermap/wads/hipnotic.wad
Opened WAD: C:/Users/Steve/Documents/GitHub/quakesingleplayermap/wads/id1.wad
Opened WAD: C:/Users/Steve/Documents/GitHub/quakesingleplayermap/wads/rogue.wad
Processing hull 0...
---- Brush_LoadEntity ----
          300 brushes
          264 planes
---- CSGFaces ----
         1790 brushfaces
         1626 csgfaces
         1489 mergedfaces
---- SolidBSP ----
         2418 split nodes
          895 solid leafs
         1350 empty leafs
          174 water leafs
            0 detail leafs
            0 detail illusionary leafs
            0 detail fence leafs
            0 illusionary visblocker leafs
         5868 leaffaces
         5616 nodefaces
---- Portalize ----
         1524 vis leafs
         1524 vis clusters
         4401 vis portals
---- FillOutside ----
*** WARNING 10: Reached occupant at (2080 -48 24), no filling performed.
Leak file written to LastStand.pts
---- MakeFaceEdges ----
---- GrowRegions ----
Processing hull 1...
*** WARNING 19: No entities in empty space -- no filling performed (hull 1)
Processing hull 2...
*** WARNING 19: No entities in empty space -- no filling performed (hull 2)
---- WriteBSPFile ----
Wrote LastStand.bsp
          502 planes            10040
         6312 vertexes          75744
         2442 nodes             58608
          308 texinfo           12320
         5640 faces            112800
         3294 clipnodes         26352
         1549 leafs             43372
         5892 marksurfaces      11784
        22556 surfedges         90224
        14249 edges             56996
           33 textures         447536
              lightdata             0
              visdata               0
              entdata             728

0.334 seconds elapsed
Peak memory usage: 22987592 (21.9M)
