---- qbsp / ericw-tools v0.18.1 ----
Input file: LastStand.map
Output file: LastStand.bsp

---- LoadMapFile ----
*** WARNING 06: No info_player_deathmatch entities in level
         1186 faces
          199 brushes
            7 entities
            8 unique texnames
          137 texinfo

Opened WAD: C:/Users/Steve/Documents/GitHub/quakesingleplayermap/wads/start/START.WAD
Opened WAD: C:/Users/Steve/Documents/GitHub/quakesingleplayermap/wads/prototype_1_2.wad
Processing hull 0...
---- Brush_LoadEntity ----
          195 brushes
          203 planes
---- CSGFaces ----
         1162 brushfaces
         1018 csgfaces
          877 mergedfaces
---- SolidBSP ----
         1581 split nodes
          561 solid leafs
          890 empty leafs
          131 water leafs
            0 detail leafs
            0 detail illusionary leafs
            0 detail fence leafs
            0 illusionary visblocker leafs
         4040 leaffaces
         3881 nodefaces
---- Portalize ----
         1021 vis leafs
         1021 vis clusters
         2678 vis portals
---- FillOutside ----
*** WARNING 10: Reached occupant at (2080 -48 24), no filling performed.
Leak file written to LastStand.pts
---- MakeFaceEdges ----
---- GrowRegions ----
Processing hull 1...
*** WARNING 19: No entities in empty space -- no filling performed (hull 1)
Processing hull 2...
*** WARNING 19: No entities in empty space -- no filling performed (hull 2)
---- WriteBSPFile ----
Wrote LastStand.bsp
          418 planes             8360
         4319 vertexes          51828
         1605 nodes             38520
          121 texinfo            4840
         3905 faces             78100
         2386 clipnodes         19088
         1046 leafs             29288
         4064 marksurfaces       8128
        15615 surfedges         62460
         9912 edges             39648
            8 textures         177124
              lightdata             0
              visdata               0
              entdata             523

0.291 seconds elapsed
Peak memory usage: 15965540 (15.2M)
