---- qbsp / ericw-tools v0.18.1 ----
Input file: LastStand.map
Output file: LastStand.bsp

---- LoadMapFile ----
*** WARNING 06: No info_player_deathmatch entities in level
         3214 faces
          532 brushes
           30 entities
           48 unique texnames
          645 texinfo

Opened WAD: C:/Users/Steve/Documents/GitHub/quakesingleplayermap/wads/start/START.WAD
Opened WAD: C:/Users/Steve/Documents/GitHub/quakesingleplayermap/wads/prototype_1_2.wad
Opened WAD: C:/Users/Steve/Documents/GitHub/quakesingleplayermap/wads/hipnotic.wad
Opened WAD: C:/Users/Steve/Documents/GitHub/quakesingleplayermap/wads/id1.wad
Opened WAD: C:/Users/Steve/Documents/GitHub/quakesingleplayermap/wads/rogue.wad
Processing hull 0...
---- Brush_LoadEntity ----
          527 brushes
          428 planes
---- CSGFaces ----
         3184 brushfaces
         2451 csgfaces
         2118 mergedfaces
---- SolidBSP ----
         3204 split nodes
         1200 solid leafs
         1787 empty leafs
          218 water leafs
            0 detail leafs
            0 detail illusionary leafs
            0 detail fence leafs
            0 illusionary visblocker leafs
         7241 leaffaces
         6899 nodefaces
---- Portalize ----
         2005 vis leafs
         2005 vis clusters
         5899 vis portals
---- FillOutside ----
*** WARNING 10: Reached occupant at (1880 -1016 104), no filling performed.
Leak file written to LastStand.pts
---- MakeFaceEdges ----
---- GrowRegions ----
Processing hull 1...
*** WARNING 10: Reached occupant at (1880 -1016 104), no filling performed.
Processing hull 2...
---- WriteBSPFile ----
Wrote LastStand.bsp
          861 planes            17220
         7840 vertexes          94080
         3234 nodes             77616
          563 texinfo           22520
         6929 faces            138580
         3457 clipnodes         27656
         2036 leafs             57008
         7271 marksurfaces      14542
        27560 surfedges        110240
        17694 edges             70776
           48 textures         744676
              lightdata             0
              visdata               0
              entdata            2229

0.447 seconds elapsed
Peak memory usage: 30064526 (28.7M)
