---- qbsp / ericw-tools v0.18.1 ----
Input file: LastStand.map
Output file: LastStand.bsp

---- LoadMapFile ----
*** WARNING 06: No info_player_deathmatch entities in level
         3520 faces
          583 brushes
           69 entities
           61 unique texnames
          707 texinfo

Opened WAD: C:/Users/Steve/Documents/GitHub/quakesingleplayermap/wads/start/START.WAD
Opened WAD: C:/Users/Steve/Documents/GitHub/quakesingleplayermap/wads/prototype_1_2.wad
Opened WAD: C:/Users/Steve/Documents/GitHub/quakesingleplayermap/wads/hipnotic.wad
Opened WAD: C:/Users/Steve/Documents/GitHub/quakesingleplayermap/wads/id1.wad
Opened WAD: C:/Users/Steve/Documents/GitHub/quakesingleplayermap/wads/rogue.wad
Processing hull 0...
---- Brush_LoadEntity ----
          567 brushes
          441 planes
---- CSGFaces ----
         3424 brushfaces
         2643 csgfaces
         2278 mergedfaces
---- SolidBSP ----
         3351 split nodes
         1277 solid leafs
         1863 empty leafs
          212 water leafs
            0 detail leafs
            0 detail illusionary leafs
            0 detail fence leafs
            0 illusionary visblocker leafs
         7531 leaffaces
         7130 nodefaces
---- Portalize ----
         2075 vis leafs
         2075 vis clusters
         6015 vis portals
---- FillOutside ----
*** WARNING 10: Reached occupant at (2440 136 168), no filling performed.
Leak file written to LastStand.pts
---- MakeFaceEdges ----
---- GrowRegions ----
Processing hull 1...
*** WARNING 10: Reached occupant at (2440 136 168), no filling performed.
Processing hull 2...
---- WriteBSPFile ----
Wrote LastStand.bsp
          870 planes            17400
         8226 vertexes          98712
         3447 nodes             82728
          618 texinfo           24720
         7226 faces            144520
         3887 clipnodes         31096
         2172 leafs             60816
         7627 marksurfaces      15254
        28744 surfedges        114976
        18504 edges             74016
           63 textures         862296
              lightdata             0
              visdata               0
              entdata            4875

0.469 seconds elapsed
Peak memory usage: 31970574 (30.5M)
