---- qbsp / ericw-tools v0.18.1 ----
Input file: LastStand.map
Output file: LastStand.bsp

---- LoadMapFile ----
*** WARNING 06: No info_player_deathmatch entities in level
         5123 faces
          850 brushes
          169 entities
           69 unique texnames
          866 texinfo

Opened WAD: C:/Users/Steve/Documents/GitHub/quakesingleplayermap/wads/hipnotic.wad
Opened WAD: C:/Users/Steve/Documents/GitHub/quakesingleplayermap/wads/id1.wad
Opened WAD: C:/Users/Steve/Documents/GitHub/quakesingleplayermap/wads/rogue.wad
Processing hull 0...
---- Brush_LoadEntity ----
          825 brushes
          529 planes
---- CSGFaces ----
         4973 brushfaces
         3691 csgfaces
         3035 mergedfaces
---- SolidBSP ----
         4244 split nodes
         1702 solid leafs
         2320 empty leafs
          223 water leafs
            0 detail leafs
            0 detail illusionary leafs
            0 detail fence leafs
            0 illusionary visblocker leafs
         8624 leaffaces
         8172 nodefaces
---- Portalize ----
         2543 vis leafs
         2543 vis clusters
         7455 vis portals
---- FillOutside ----
*** WARNING 10: Reached occupant at (440 136 168), no filling performed.
Leak file written to LastStand.pts
---- MakeFaceEdges ----
---- GrowRegions ----
Processing hull 1...
*** WARNING 10: Reached occupant at (1112 360 440), no filling performed.
Processing hull 2...
*** WARNING 10: Reached occupant at (1112 360 440), no filling performed.
*** WARNING 16: Texture 128_blue_1 not found
*** WARNING 16: Texture 128_blue_3 not found
---- WriteBSPFile ----
Wrote LastStand.bsp
          993 planes            19860
         9691 vertexes         116292
         4388 nodes            105312
          748 texinfo           29920
         8329 faces            166580
         6061 clipnodes         48488
         2688 leafs             75264
         8781 marksurfaces      17562
        33171 surfedges        132684
        21335 edges             85340
           74 textures         823260
              lightdata             0
              visdata               0
              entdata           11492

0.612 seconds elapsed
Peak memory usage: 40170730 (38.3M)
