---- qbsp / ericw-tools v0.18.1 ----
Input file: LastStand.map
Output file: LastStand.bsp

---- LoadMapFile ----
*** WARNING 06: No info_player_deathmatch entities in level
         1174 faces
          197 brushes
            7 entities
            8 unique texnames
          135 texinfo

Opened WAD: C:/Users/Steve/Documents/GitHub/quakesingleplayermap/wads/start/START.WAD
Opened WAD: C:/Users/Steve/Documents/GitHub/quakesingleplayermap/wads/prototype_1_2.wad
Processing hull 0...
---- Brush_LoadEntity ----
          193 brushes
          202 planes
---- CSGFaces ----
         1150 brushfaces
         1002 csgfaces
          866 mergedfaces
---- SolidBSP ----
         1543 split nodes
          549 solid leafs
          871 empty leafs
          124 water leafs
            0 detail leafs
            0 detail illusionary leafs
            0 detail fence leafs
            0 illusionary visblocker leafs
         3987 leaffaces
         3828 nodefaces
---- Portalize ----
          995 vis leafs
          995 vis clusters
         2618 vis portals
---- FillOutside ----
*** WARNING 10: Reached occupant at (2080 -48 24), no filling performed.
Leak file written to LastStand.pts
---- MakeFaceEdges ----
---- GrowRegions ----
Processing hull 1...
*** WARNING 19: No entities in empty space -- no filling performed (hull 1)
Processing hull 2...
*** WARNING 19: No entities in empty space -- no filling performed (hull 2)
---- WriteBSPFile ----
Wrote LastStand.bsp
          415 planes             8300
         4281 vertexes          51372
         1567 nodes             37608
          119 texinfo            4760
         3852 faces             77040
         2371 clipnodes         18968
         1020 leafs             28560
         4011 marksurfaces       8022
        15403 surfedges         61612
         9779 edges             39116
            8 textures         177124
              lightdata             0
              visdata               0
              entdata             523

0.240 seconds elapsed
Peak memory usage: 15861562 (15.1M)
